data/opendss_case33/scenario_min_a/PVSystem.dss
! ===========================================================
! 分布式光伏系统 - 使用 PVSystem 元件
! ===========================================================

! PVSystem 特有参数说明:
! - Pmpp: 最大功率点功率 (kW)
! - kW: 当前输出功率 (kW)
! - PF: 功率因数
! - eff: 效率
! - temperaturecoeff: 温度系数
! - irradiance: 辐照度 (0-1)

! 光伏均匀分布在 IEEE 33 拓扑上:
!   主干: bus6(300kW), bus10(500kW), bus14(400kW), bus18(2500kW) ← 适度扩容使电压温和越限
!   支路: bus25(300kW), bus31(400kW)
!   合计: 4400 kW (118% 总负荷 3715kW)

New PVSystem.PV_Bus6 phases=3 bus1=bus6.1.2.3 conn=wye kV=12.66 
~ Pmpp=300 kW=300 PF=1.0 eff=0.95 temperaturecoeff=-0.004 
~ irradiance=1.0 status=variable

New PVSystem.PV_Bus10 phases=3 bus1=bus10.1.2.3 conn=wye kV=12.66 
~ Pmpp=500 kW=500 PF=1.0 eff=0.95 temperaturecoeff=-0.004 
~ irradiance=1.0 status=variable

New PVSystem.PV_Bus14 phases=3 bus1=bus14.1.2.3 conn=wye kV=12.66 
~ Pmpp=400 kW=400 PF=1.0 eff=0.95 temperaturecoeff=-0.004 
~ irradiance=1.0 status=variable

New PVSystem.PV_Bus18 phases=3 bus1=bus18.1.2.3 conn=wye kV=12.66 
~ Pmpp=2500 kW=2500 PF=1.0 eff=0.95 temperaturecoeff=-0.004 
~ irradiance=1.0 status=variable

New PVSystem.PV_Bus25 phases=3 bus1=bus25.1.2.3 conn=wye kV=12.66 
~ Pmpp=300 kW=300 PF=1.0 eff=0.95 temperaturecoeff=-0.004 
~ irradiance=1.0 status=variable

New PVSystem.PV_Bus31 phases=3 bus1=bus31.1.2.3 conn=wye kV=12.66 
~ Pmpp=400 kW=400 PF=1.0 eff=0.95 temperaturecoeff=-0.004 
~ irradiance=1.0 status=variable
